PDEW 2011  2  9 19 24  6.70  11.8100   57.7800  10.0 5.0 0.0 OWEN FRACTURE ZONE REGIO
event name:     201102091924A
time shift:     -0.7000
half duration:   0.8000
latitude:       11.7700
longitude:      57.6800
depth:          14.9000
Mrr:      -3.780000e+22
Mtt:      -3.080000e+23
Mpp:       3.460000e+23
Mrt:       8.740000e+22
Mrp:      -1.190000e+23
Mtp:      -2.820000e+23

PDEW 2011  2 20  9  9 58.00  13.6700   51.6400  10.0 5.2 0.0 EASTERN GULF OF ADEN    
event name:     201102200909A
time shift:      2.0000
half duration:   1.2000
latitude:       13.8400
longitude:      51.4700
depth:          21.3000
Mrr:       7.400000e+22
Mtt:       1.100000e+24
Mpp:      -1.180000e+24
Mrt:       1.290000e+23
Mrp:       4.740000e+23
Mtp:       9.590000e+23

PDEW 2011  6 12 15 37  4.10  13.4200   41.6900   1.9 5.1 0.0 ETHIOPIA                
event name:     201106121537A
time shift:      3.0000
half duration:   0.8000
latitude:       13.4900
longitude:      41.8200
depth:          12.0000
Mrr:      -4.570000e+23
Mtt:       2.540000e+23
Mpp:       2.030000e+23
Mrt:      -1.800000e+23
Mrp:      -7.190000e+22
Mtp:      -2.570000e+23

PDEW 2011  6 12 19 21 50.80  13.3000   41.8000  10.0 5.0 0.0 ETHIOPIA                
event name:     201106121921A
time shift:      0.4000
half duration:   0.8000
latitude:       13.4800
longitude:      41.9000
depth:          12.0000
Mrr:      -3.230000e+23
Mtt:       2.930000e+23
Mpp:       3.060000e+22
Mrt:      -6.900000e+22
Mrp:      -1.040000e+23
Mtp:      -2.230000e+23

PDEW 2011  6 12 20 32 40.50  13.4100   41.7400  10.0 5.4 5.7 ETHIOPIA                
event name:     201106122032A
time shift:      0.2000
half duration:   1.5000
latitude:       13.5800
longitude:      41.8100
depth:          12.0000
Mrr:      -2.450000e+24
Mtt:       1.710000e+24
Mpp:       7.400000e+23
Mrt:       8.060000e+23
Mrp:       2.920000e+23
Mtp:      -1.750000e+24

PDEW 2011  6 12 21  3 23.10  13.5200   41.6400  10.0 5.6 5.4 ETHIOPIA                
event name:     201106122103A
time shift:      0.2000
half duration:   1.2000
latitude:       13.5800
longitude:      41.8000
depth:          12.0000
Mrr:      -1.260000e+24
Mtt:       1.170000e+24
Mpp:       9.400000e+22
Mrt:       4.600000e+23
Mrp:       1.240000e+23
Mtp:      -5.660000e+23

PDEW 2011  6 15  1  5 30.70  27.7800   57.7700  34.0 5.4 5.7 SOUTHERN IRAN           
event name:     201106150105A
time shift:     -1.6000
half duration:   1.3000
latitude:       27.7100
longitude:      57.5600
depth:          41.4000
Mrr:       7.040000e+23
Mtt:      -1.060000e+24
Mpp:       3.570000e+23
Mrt:       1.080000e+24
Mrp:       6.740000e+23
Mtp:       9.810000e+23

PDEW 2011  6 17  9 16 12.60  13.3000   41.7300  10.0 5.5 5.6 ETHIOPIA                
event name:     201106170916A
time shift:     -0.1000
half duration:   1.6000
latitude:       13.4600
longitude:      41.7600
depth:          12.0000
Mrr:      -6.170000e+23
Mtt:      -8.570000e+23
Mpp:       1.470000e+24
Mrt:      -6.090000e+23
Mrp:       1.700000e+23
Mtp:      -3.110000e+24

PDEW 2011  6 23  7 34 42.70  38.5800   39.6400   6.1 5.2 5.4 TURKEY                  
event name:     201106230734A
time shift:      3.3000
half duration:   1.2000
latitude:       38.5300
longitude:      39.5700
depth:          18.7000
Mrr:       1.390000e+23
Mtt:      -8.580000e+23
Mpp:       7.190000e+23
Mrt:       2.350000e+23
Mrp:      -1.500000e+23
Mtp:       1.110000e+24

PDEW 2011  6 26 19 47  0.00  30.2100   57.6300  13.0 5.0 5.2 NORTHERN AND CENTRAL IRA
event name:     201106261947A
time shift:     -3.1000
half duration:   0.9000
latitude:       29.8900
longitude:      57.5700
depth:          21.5000
Mrr:       5.520000e+23
Mtt:      -3.690000e+23
Mpp:      -1.820000e+23
Mrt:      -9.510000e+22
Mrp:       2.240000e+23
Mtp:       2.750000e+23

PDEW 2011  7 19 19 35 43.50  40.0800   71.4100  20.0 6.1 6.1 TAJIKISTAN              
event name:     201107191935A
time shift:      5.0000
half duration:   2.9000
latitude:       40.2800
longitude:      71.3600
depth:          28.8000
Mrr:       1.330000e+25
Mtt:      -1.680000e+25
Mpp:       3.500000e+24
Mrt:      -1.470000e+25
Mrp:       7.000000e+22
Mtp:      -2.900000e+24

PDEW 2011  7 24 10 38 54.00  28.2700   66.3700  10.0 5.0 0.0 PAKISTAN                
event name:     201107241038A
time shift:      1.9000
half duration:   0.7000
latitude:       28.0300
longitude:      66.1700
depth:          13.4000
Mrr:       6.900000e+22
Mtt:      -2.660000e+23
Mpp:       1.980000e+23
Mrt:       9.790000e+22
Mrp:      -5.500000e+22
Mtp:      -1.080000e+23

PDEW 2011  7 27  9 58 15.20  38.3200   31.9600  10.0 4.8 5.0 TURKEY                  
event name:     201107270958A
time shift:      0.7000
half duration:   0.6000
latitude:       38.3200
longitude:      31.8200
depth:          16.4000
Mrr:      -1.670000e+23
Mtt:       4.910000e+22
Mpp:       1.180000e+23
Mrt:       1.450000e+23
Mrp:      -2.620000e+22
Mtp:      -7.990000e+22

PDEW 2012  6  1 11  3 40.00  23.6900   62.0200  10.0 4.9 0.0 OFF COAST OF PAKISTAN   
event name:     201206011103A
time shift:      4.1000
half duration:   0.7000
latitude:       23.7000
longitude:      62.0700
depth:          32.8000
Mrr:       8.780000e+22
Mtt:       5.110000e+22
Mpp:      -1.390000e+23
Mrt:       1.160000e+23
Mrp:       2.120000e+22
Mtp:       1.700000e+23

PDEW 2012  6  1 12 32 27.70  39.8000   75.1900  47.5 5.3 5.2 SOUTHERN XINJIANG, CHINA
event name:     201206011232A
time shift:     -1.9000
half duration:   0.8000
latitude:       39.8200
longitude:      75.3200
depth:          34.6000
Mrr:       2.820000e+23
Mtt:       1.470000e+23
Mpp:      -4.290000e+23
Mrt:       2.780000e+23
Mrp:       5.980000e+22
Mtp:      -9.470000e+22

PDEW 2012  6  8 16 15 14.80  29.7800   50.7100  14.6 5.0 4.8 SOUTHERN IRAN           
event name:     201206081615A
time shift:     -0.2000
half duration:   0.8000
latitude:       29.6900
longitude:      50.6200
depth:          13.3000
Mrr:       3.310000e+23
Mtt:      -1.520000e+23
Mpp:      -1.800000e+23
Mrt:       6.960000e+22
Mrp:      -8.730000e+22
Mtp:       2.060000e+23

PDEW 2012  6 11  5  2 14.20  36.0400   69.4000  29.1 5.4 0.0 HINDU KUSH REGION, AFGHA
event name:     201206110502B
time shift:     -1.8000
half duration:   1.1000
latitude:       36.0700
longitude:      69.2000
depth:          23.2000
Mrr:       2.520000e+23
Mtt:       5.960000e+23
Mpp:      -8.480000e+23
Mrt:      -6.300000e+23
Mrp:      -4.000000e+21
Mtp:      -3.710000e+23

PDEW 2012  6 11  5 29 11.50  36.0200   69.3500  16.0 5.6 5.7 HINDU KUSH REGION, AFGHA
event name:     201206110529A
time shift:      0.6000
half duration:   1.8000
latitude:       36.0700
longitude:      69.2400
depth:          24.0000
Mrr:       1.080000e+24
Mtt:       3.840000e+24
Mpp:      -4.910000e+24
Mrt:      -1.870000e+24
Mrp:       1.610000e+23
Mtp:      -1.890000e+24

PDEW 2012  6 14  5 52 53.60  37.2900   42.3300   5.4 5.3 5.5 TURKEY                  
event name:     201206140552A
time shift:      1.4000
half duration:   1.0000
latitude:       37.1100
longitude:      42.4400
depth:          12.0000
Mrr:       4.410000e+23
Mtt:      -6.530000e+23
Mpp:       2.130000e+23
Mrt:       4.760000e+23
Mrp:      -1.810000e+23
Mtp:       5.450000e+23

PDEW 2012  6 19 20 14  5.70  23.6500   70.2500  28.6 5.0 0.0 SOUTHERN INDIA          
event name:     201206192014A
time shift:     -4.1000
half duration:   0.9000
latitude:       23.5200
longitude:      70.2400
depth:          14.8000
Mrr:       1.480000e+22
Mtt:      -2.550000e+23
Mpp:       2.400000e+23
Mrt:      -9.100000e+22
Mrp:      -2.610000e+23
Mtp:      -5.070000e+23

PDEW 2012  6 24 20  7 22.00  38.7200   43.6800  16.0 4.9 5.0 TURKEY                  
event name:     201206242007A
time shift:      2.8000
half duration:   0.7000
latitude:       38.6100
longitude:      43.6300
depth:          19.1000
Mrr:       2.580000e+23
Mtt:      -2.570000e+23
Mpp:      -1.600000e+21
Mrt:       1.260000e+22
Mrp:       7.080000e+22
Mtp:      -7.420000e+22

PDEW 2012  4 18 17 40 39.70  27.9700   58.0700  72.9 5.1 5.1 SOUTHERN IRAN           
event name:     201204181740A
time shift:      0.5000
half duration:   0.9000
latitude:       27.7600
longitude:      57.9600
depth:          88.1000
Mrr:      -1.820000e+23
Mtt:       3.970000e+23
Mpp:      -2.160000e+23
Mrt:       5.450000e+22
Mrp:      -3.460000e+23
Mtp:      -4.220000e+23

PDEW 2012  4 18 18 42 58.10  32.5800   47.0500  10.0 5.1 4.9 IRAN-IRAQ BORDER REGION 
event name:     201204181843A
time shift:      2.0000
half duration:   0.8000
latitude:       32.5400
longitude:      46.8500
depth:          12.0000
Mrr:       3.950000e+23
Mtt:      -2.690000e+23
Mpp:      -1.260000e+23
Mrt:       1.130000e+22
Mrp:      -3.920000e+22
Mtp:       2.020000e+23

PDEW 2012  4 18 20  4  6.70  32.4400   47.1200  10.0 4.4 4.4 IRAN-IRAQ BORDER REGION 
event name:     201204182004A
time shift:      1.2000
half duration:   0.7000
latitude:       32.5200
longitude:      46.9300
depth:          12.0000
Mrr:       2.180000e+23
Mtt:      -1.720000e+23
Mpp:      -4.610000e+22
Mrt:       9.470000e+22
Mrp:       8.780000e+22
Mtp:       1.410000e+23

PDEW 2012  4 20  1 21  7.50  32.5100   47.0200  10.0 5.1 5.1 IRAN-IRAQ BORDER REGION 
event name:     201204200121A
time shift:      1.4000
half duration:   1.0000
latitude:       32.5300
longitude:      46.8300
depth:          12.0000
Mrr:       7.570000e+23
Mtt:      -5.730000e+23
Mpp:      -1.840000e+23
Mrt:       1.710000e+23
Mrp:      -1.480000e+23
Mtp:       3.790000e+23

PDEW 2012  4 20  3  5 41.80  32.4500   46.9900  10.0 5.0 4.8 IRAN-IRAQ BORDER REGION 
event name:     201204200305B
time shift:      3.5000
half duration:   1.0000
latitude:       32.6300
longitude:      46.7300
depth:          12.0000
Mrr:       8.190000e+23
Mtt:      -5.920000e+23
Mpp:      -2.270000e+23
Mrt:       1.200000e+22
Mrp:      -2.000000e+23
Mtp:       4.320000e+23

PDEW 2012  4 20  3 52 36.80  32.3800   46.9600  10.0 4.3 4.3 IRAN-IRAQ BORDER REGION 
event name:     201204200352A
time shift:      0.5000
half duration:   0.6000
latitude:       32.6100
longitude:      46.7300
depth:          12.5000
Mrr:       1.840000e+23
Mtt:      -1.230000e+23
Mpp:      -6.070000e+22
Mrt:      -1.980000e+22
Mrp:      -1.030000e+23
Mtp:       1.050000e+23

PDEW 2012  4 20  3 56 25.40  32.5200   46.8500  10.0 4.6 4.5 IRAN-IRAQ BORDER REGION 
event name:     201204200356B
time shift:      2.5000
half duration:   0.6000
latitude:       32.6500
longitude:      46.5800
depth:          12.3000
Mrr:       1.620000e+23
Mtt:      -1.350000e+23
Mpp:      -2.660000e+22
Mrt:       3.450000e+22
Mrp:      -2.010000e+23
Mtp:       9.520000e+22

PDEW 2012  4 20 15 37  3.00  32.4200   46.8600   5.0 4.9 0.0 IRAN-IRAQ BORDER REGION 
event name:     201204201537A
time shift:      3.2000
half duration:   0.6000
latitude:       32.6200
longitude:      46.7900
depth:          17.9000
Mrr:       1.740000e+23
Mtt:      -1.180000e+23
Mpp:      -5.630000e+22
Mrt:      -2.500000e+21
Mrp:      -4.180000e+22
Mtp:       8.390000e+22

PDEW 2012  4 20 16 17 49.00  32.4200   46.8400  10.0 4.7 0.0 IRAN-IRAQ BORDER REGION 
event name:     201204201617A
time shift:      3.2000
half duration:   0.8000
latitude:       32.5000
longitude:      46.9000
depth:          12.0000
Mrr:       3.800000e+23
Mtt:      -3.050000e+23
Mpp:      -7.510000e+22
Mrt:       1.180000e+23
Mrp:      -1.250000e+23
Mtp:       1.990000e+23

PDEW 2012  4 21  5 25  8.40  32.4100   47.0500  10.0 5.0 4.6 IRAN-IRAQ BORDER REGION 
event name:     201204210525A
time shift:      3.4000
half duration:   1.0000
latitude:       32.5400
longitude:      46.7500
depth:          18.9000
Mrr:       4.770000e+23
Mtt:      -3.100000e+23
Mpp:      -1.670000e+23
Mrt:       7.720000e+22
Mrp:      -5.360000e+23
Mtp:       3.180000e+23

PDEW 2011 12  1 12 48 17.80  38.3100   76.8900  31.7 5.3 0.0 SOUTHERN XINJIANG, CHINA
event name:     201112011248A
time shift:      0.4000
half duration:   0.7000
latitude:       38.5400
longitude:      76.8900
depth:          43.9000
Mrr:       1.440000e+23
Mtt:      -2.790000e+23
Mpp:       1.360000e+23
Mrt:      -1.650000e+23
Mrp:       6.880000e+22
Mtp:      -1.790000e+22

PDEW 2011 12  4 22 15  2.30  38.4600   43.3000   4.2 4.7 4.9 TURKEY                  
event name:     201112042215A
time shift:      5.4000
half duration:   0.6000
latitude:       38.4900
longitude:      43.3100
depth:          24.3000
Mrr:      -4.450000e+22
Mtt:      -1.190000e+23
Mpp:       1.640000e+23
Mrt:      -1.170000e+22
Mrp:      -1.500000e+22
Mtp:      -1.470000e+23

PDEW 2011 12 23 12  2  2.30  28.8500   68.3000  10.0 5.1 0.0 PAKISTAN                
event name:     201112231202A
time shift:      1.5000
half duration:   0.9000
latitude:       28.7200
longitude:      68.2400
depth:          12.0000
Mrr:       5.920000e+23
Mtt:      -3.750000e+23
Mpp:      -2.170000e+23
Mrt:       2.170000e+23
Mrp:      -3.770000e+22
Mtp:       2.450000e+23

PDEW 2012  2  4 21 50 50.60  13.0500   57.5600  10.0 5.3 5.5 OWEN FRACTURE ZONE REGIO
event name:     201202042150A
time shift:     -1.0000
half duration:   1.4000
latitude:       12.9900
longitude:      57.4900
depth:          12.0000
Mrr:      -2.100000e+24
Mtt:       1.190000e+24
Mpp:       9.100000e+23
Mrt:       9.720000e+23
Mrp:      -3.810000e+23
Mtp:      -9.540000e+23

PDEW 2012  2  5  6 10 39.80  28.5900   51.4900  10.0 5.0 4.8 SOUTHERN IRAN           
event name:     201202050610A
time shift:      1.2000
half duration:   0.7000
latitude:       28.5300
longitude:      51.3200
depth:          18.2000
Mrr:       2.410000e+23
Mtt:      -8.850000e+22
Mpp:      -1.530000e+23
Mrt:      -1.210000e+22
Mrp:      -5.060000e+22
Mtp:       1.320000e+23

PDEW 2012  2  5  7 10 16.60  41.4400   74.7800  10.0 5.2 0.0 KYRGYZSTAN              
event name:     201202050710A
time shift:      3.8000
half duration:   0.7000
latitude:       41.5900
longitude:      74.7600
depth:          30.6000
Mrr:       2.300000e+23
Mtt:      -2.140000e+23
Mpp:      -1.690000e+22
Mrt:      -3.070000e+22
Mrp:      -5.800000e+22
Mtp:      -9.340000e+22

PDEW 2012  2 20 13 59 23.80  35.7200   79.7200  10.0 5.0 0.0 KASHMIR-XIZANG BORDER RE
event name:     201202201359A
time shift:      2.5000
half duration:   0.7000
latitude:       35.8000
longitude:      79.6400
depth:          25.0000
Mrr:      -2.350000e+22
Mtt:      -2.500000e+23
Mpp:       2.740000e+23
Mrt:       8.050000e+22
Mrp:      -2.310000e+22
Mtp:       1.480000e+23

PDEW 2012  2 20 14 18  3.80  35.8400   79.8300  10.0 5.0 0.0 KASHMIR-XIZANG BORDER RE
event name:     201202201418A
time shift:      3.5000
half duration:   0.9000
latitude:       35.7600
longitude:      79.6500
depth:          28.8000
Mrr:      -7.020000e+22
Mtt:      -4.870000e+23
Mpp:       5.570000e+23
Mrt:       1.530000e+23
Mrp:      -5.570000e+22
Mtp:       2.840000e+23

PDEW 2012  2 27 18 48 55.30  31.4300   56.7800  10.0 5.2 5.4 NORTHERN AND CENTRAL IRA
event name:     201202271848A
time shift:     -1.1000
half duration:   1.0000
latitude:       31.3500
longitude:      56.7300
depth:          12.0000
Mrr:       6.860000e+23
Mtt:      -7.950000e+23
Mpp:       1.100000e+23
Mrt:      -1.710000e+23
Mrp:       2.760000e+23
Mtp:       3.640000e+23

PDEW 2012  2 28 23 18 53.80  32.5000   46.9100  22.3 4.5 4.5 IRAN-IRAQ BORDER REGION 
event name:     201202282318A
time shift:     -0.2000
half duration:   0.7000
latitude:       32.5800
longitude:      46.8100
depth:          12.0000
Mrr:       3.490000e+23
Mtt:      -2.320000e+23
Mpp:      -1.180000e+23
Mrt:      -2.310000e+22
Mrp:      -4.390000e+22
Mtp:       1.780000e+23

PDEW 2012  1  4 16 51 44.30  26.7400   66.1700  10.0 4.8 0.0 PAKISTAN                
event name:     201201041651A
time shift:      1.8000
half duration:   0.7000
latitude:       26.6100
longitude:      66.0500
depth:          15.1000
Mrr:      -5.200000e+22
Mtt:       4.330000e+22
Mpp:       8.700000e+21
Mrt:      -9.730000e+22
Mrp:      -1.310000e+23
Mtp:      -2.180000e+23

PDEW 2012  1  9 19 53 35.30  27.0300   55.7300  14.2 5.2 5.1 SOUTHERN IRAN           
event name:     201201091953A
time shift:      2.4000
half duration:   0.7000
latitude:       26.8600
longitude:      55.6500
depth:          17.2000
Mrr:       1.670000e+23
Mtt:      -3.030000e+23
Mpp:       1.350000e+23
Mrt:       9.460000e+22
Mrp:      -8.910000e+22
Mtp:       4.570000e+22

PDEW 2012  1 11 17  8  0.60  36.3300   52.7800  15.8 5.1 5.2 NORTHERN AND CENTRAL IRA
event name:     201201111708A
time shift:      2.6000
half duration:   0.7000
latitude:       36.3700
longitude:      53.1000
depth:          30.6000
Mrr:       3.110000e+23
Mtt:      -2.090000e+23
Mpp:      -1.020000e+23
Mrt:      -9.910000e+22
Mrp:       1.570000e+23
Mtp:       1.450000e+23

PDEW 2012  1 13 22 49 59.50  36.0100   70.5100 100.9 5.0 0.0 HINDU KUSH REGION, AFGHA
event name:     201201132250A
time shift:      1.6000
half duration:   0.6000
latitude:       35.9400
longitude:      70.2200
depth:         118.3000
Mrr:       1.640000e+23
Mtt:      -2.070000e+23
Mpp:       4.280000e+22
Mrt:       5.880000e+22
Mrp:       2.900000e+21
Mtp:       1.900000e+21

PDEW 2012  1 19 12 35 51.30  36.2900   58.8300   8.3 5.6 5.1 NORTHERN AND CENTRAL IRA
event name:     201201191235A
time shift:      0.9000
half duration:   1.0000
latitude:       36.2700
longitude:      58.9000
depth:          19.7000
Mrr:       6.540000e+23
Mtt:      -5.790000e+23
Mpp:      -7.500000e+22
Mrt:       5.470000e+23
Mrp:      -3.700000e+23
Mtp:       3.680000e+23

PDEW 2012  1 30 17  4 28.80  27.7900   33.9900  28.4 4.6 0.0 EGYPT                   
event name:     201201301704A
time shift:     -2.6000
half duration:   0.7000
latitude:       27.5700
longitude:      34.0100
depth:          22.5000
Mrr:      -2.370000e+23
Mtt:       6.980000e+22
Mpp:       1.670000e+23
Mrt:      -8.720000e+22
Mrp:       6.670000e+22
Mtp:      -5.250000e+22

PDEW 2012  3  2 13 40 12.40  39.7500   74.3800  42.5 5.0 0.0 SOUTHERN XINJIANG, CHINA
event name:     201203021340A
time shift:     -2.4000
half duration:   0.7000
latitude:       39.7200
longitude:      74.4100
depth:          22.7000
Mrr:      -1.190000e+23
Mtt:      -5.100000e+21
Mpp:       1.240000e+23
Mrt:      -2.270000e+23
Mrp:      -8.520000e+22
Mtp:       1.010000e+23

PDEW 2012  3  5  6 50 37.90  35.0400   44.1000  32.1 4.6 4.6 IRAQ                    
event name:     201203050650A
time shift:     -0.6000
half duration:   0.9000
latitude:       34.9600
longitude:      44.1400
depth:          15.0000
Mrr:      -3.030000e+22
Mtt:       3.210000e+23
Mpp:      -2.910000e+23
Mrt:       4.780000e+22
Mrp:       7.330000e+22
Mtp:       6.310000e+23

PDEW 2012  3  8 18 21 38.50  32.8700   46.9600  18.0 5.1 4.8 IRAN-IRAQ BORDER REGION 
event name:     201203081821A
time shift:      0.1000
half duration:   0.8000
latitude:       32.7900
longitude:      46.7300
depth:          15.6000
Mrr:       3.580000e+23
Mtt:      -2.790000e+23
Mpp:      -7.840000e+22
Mrt:       1.700000e+23
Mrp:      -1.410000e+23
Mtp:       1.700000e+23

PDEW 2012  3 12  6  6 40.60  36.7400   73.1500  11.0 5.6 5.6 NORTHWESTERN KASHMIR    
event name:     201203120606A
time shift:      1.3000
half duration:   1.7000
latitude:       36.8800
longitude:      73.2400
depth:          22.0000
Mrr:      -2.510000e+24
Mtt:      -2.220000e+24
Mpp:       4.730000e+24
Mrt:       1.370000e+24
Mrp:      -6.780000e+23
Mtp:      -3.510000e+23

PDEW 2012  3 24  5 25 38.20  32.5500   46.9800  37.8 4.9 4.8 IRAN-IRAQ BORDER REGION 
event name:     201203240525A
time shift:     -1.0000
half duration:   0.7000
latitude:       32.5900
longitude:      46.8400
depth:          12.0000
Mrr:       2.430000e+23
Mtt:      -1.710000e+23
Mpp:      -7.190000e+22
Mrt:       6.890000e+22
Mrp:       1.480000e+22
Mtp:       1.350000e+23

PDEW 2012  3 26 10 35 34.70  39.1600   42.3400  10.0 5.2 5.0 TURKEY                  
event name:     201203261035A
time shift:      0.5000
half duration:   1.0000
latitude:       39.1500
longitude:      42.2000
depth:          19.5000
Mrr:       7.410000e+23
Mtt:      -7.490000e+23
Mpp:       9.000000e+21
Mrt:      -1.600000e+22
Mrp:      -4.000000e+22
Mtp:      -1.560000e+23

PDEW 2011  5  1  2 31 29.60  43.5600   77.7500  23.2 5.3 4.8 LAKE ISSYK-KUL REGION   
event name:     201105010231A
time shift:      2.2000
half duration:   0.9000
latitude:       43.7200
longitude:      77.7300
depth:          24.6000
Mrr:       1.930000e+23
Mtt:      -3.580000e+23
Mpp:       1.660000e+23
Mrt:      -5.280000e+23
Mrp:      -2.170000e+23
Mtp:       3.250000e+22

PDEW 2011  5 13 21 39 29.80  36.5900   71.0100 232.1 4.9 0.0 AFGHANISTAN-TAJIKISTAN B
event name:     201105132139A
time shift:      2.6000
half duration:   0.8000
latitude:       36.7800
longitude:      70.9200
depth:         235.2000
Mrr:       2.320000e+23
Mtt:       2.240000e+22
Mpp:      -2.540000e+23
Mrt:       5.640000e+22
Mrp:       2.880000e+23
Mtp:       1.020000e+23

PDEW 2011  5 14 21  7 22.20  36.4100   70.7500 207.3 5.8 6.0 HINDU KUSH REGION, AFGHA
event name:     201105142107A
time shift:      1.7000
half duration:   2.4000
latitude:       36.4500
longitude:      70.6200
depth:         210.2000
Mrr:       7.780000e+24
Mtt:      -6.570000e+24
Mpp:      -1.210000e+24
Mrt:       7.450000e+24
Mrp:      -5.160000e+24
Mtp:       2.280000e+24

PDEW 2012  5  3  6 42 37.20  36.3500   70.7100 144.8 4.7 0.0 HINDU KUSH REGION, AFGHA
event name:     201205030642A
time shift:     -0.4000
half duration:   0.7000
latitude:       36.3000
longitude:      70.5000
depth:         157.9000
Mrr:       9.190000e+22
Mtt:       4.260000e+22
Mpp:      -1.340000e+23
Mrt:      -2.420000e+23
Mrp:      -8.510000e+22
Mtp:      -2.100000e+23

PDEW 2012  5  3 10  9 35.60  32.7500   47.7300  10.0 5.6 5.4 IRAN-IRAQ BORDER REGION 
event name:     201205031009A
time shift:      1.1000
half duration:   1.2000
latitude:       32.6600
longitude:      47.6000
depth:          21.1000
Mrr:       1.470000e+24
Mtt:      -1.310000e+24
Mpp:      -1.570000e+23
Mrt:       3.510000e+23
Mrp:       1.300000e+22
Mtp:       7.430000e+23

PDEW 2012  5  5  1 57 11.80  35.0900   44.1000  10.0 4.4 4.9 IRAQ                    
event name:     201205050157A
time shift:      0.4000
half duration:   0.6000
latitude:       35.0400
longitude:      44.0400
depth:          24.4000
Mrr:      -2.180000e+22
Mtt:       1.030000e+23
Mpp:      -8.110000e+22
Mrt:       4.000000e+21
Mrp:       8.460000e+22
Mtp:       1.390000e+23

PDEW 2012  5  7  4 40 27.80  41.5500   46.7900  11.0 5.7 5.7 EASTERN CAUCASUS        
event name:     201205070440A
time shift:      2.3000
half duration:   2.1000
latitude:       41.4600
longitude:      46.6800
depth:          15.0000
Mrr:       1.990000e+24
Mtt:      -1.820000e+24
Mpp:      -1.690000e+23
Mrt:       7.120000e+24
Mrp:      -2.320000e+24
Mtp:       8.850000e+23

PDEW 2012  5  7 14 15 13.20  41.5600   46.7300   4.2 5.6 5.4 EASTERN CAUCASUS        
event name:     201205071415A
time shift:      1.8000
half duration:   1.1000
latitude:       41.6300
longitude:      46.7700
depth:          12.0000
Mrr:      -1.220000e+24
Mtt:       1.030000e+24
Mpp:       1.860000e+23
Mrt:       1.700000e+22
Mrp:      -1.810000e+23
Mtp:      -5.330000e+23

PDEW 2012  5 11 18 48 30.20  34.3000   34.1200  20.5 5.4 0.0 CYPRUS REGION           
event name:     201205111848A
time shift:      2.1000
half duration:   1.1000
latitude:       34.2200
longitude:      34.1700
depth:          25.5000
Mrr:      -8.700000e+22
Mtt:       7.690000e+23
Mpp:      -6.820000e+23
Mrt:      -9.600000e+22
Mrp:       5.830000e+23
Mtp:       5.710000e+23

PDEW 2012  5 12 23 28 43.60  38.6100   70.3500  10.0 6.0 5.9 AFGHANISTAN-TAJIKISTAN B
event name:     201205122328A
time shift:      1.1000
half duration:   1.7000
latitude:       38.6900
longitude:      70.2100
depth:          21.5000
Mrr:       2.680000e+24
Mtt:      -4.130000e+23
Mpp:      -2.260000e+24
Mrt:       2.570000e+23
Mrp:      -2.960000e+24
Mtp:      -2.280000e+24

PDEW 2012  5 13 18 21  8.00  26.7800   53.7700  10.0 4.9 5.0 SOUTHERN IRAN           
event name:     201205131821A
time shift:      4.9000
half duration:   0.9000
latitude:       26.8100
longitude:      53.9600
depth:          12.0000
Mrr:       5.120000e+23
Mtt:      -4.950000e+23
Mpp:      -1.720000e+22
Mrt:       2.760000e+23
Mrp:       1.640000e+22
Mtp:       2.360000e+23

PDEW 2012  5 17 21 40 42.20  26.9400   53.8500   5.0 5.1 4.9 SOUTHERN IRAN           
event name:     201205172140A
time shift:     -1.2000
half duration:   0.9000
latitude:       26.8600
longitude:      53.8800
depth:          12.0000
Mrr:       6.280000e+23
Mtt:      -5.990000e+23
Mpp:      -2.830000e+22
Mrt:       1.680000e+23
Mrp:      -1.420000e+23
Mtp:       2.570000e+23

PDEW 2012  5 30 21 20 56.20  43.3800   78.7500  17.2 5.7 5.4 LAKE ISSYK-KUL REGION   
event name:     201205302120A
time shift:      2.5000
half duration:   1.2000
latitude:       43.5800
longitude:      78.7800
depth:          27.0000
Mrr:       1.370000e+24
Mtt:      -1.500000e+24
Mpp:       1.350000e+23
Mrt:      -4.690000e+23
Mrp:       4.200000e+22
Mtp:      -3.270000e+23

PDEW 2011 11  3 11 34 19.40  36.4400   71.3700  87.5 4.9 0.0 AFGHANISTAN-TAJIKISTAN B
event name:     201111031134A
time shift:      1.1000
half duration:   0.7000
latitude:       36.2300
longitude:      71.0900
depth:         101.5000
Mrr:       1.740000e+23
Mtt:      -2.410000e+23
Mpp:       6.650000e+22
Mrt:       1.670000e+23
Mrp:       3.900000e+22
Mtp:      -9.400000e+21

PDEW 2011 11  6  2 43 12.00  38.9200   43.5600   5.0 4.7 4.9 TURKEY                  
event name:     201111060243A
time shift:      4.2000
half duration:   0.6000
latitude:       38.8200
longitude:      43.5000
depth:          15.8000
Mrr:      -2.870000e+22
Mtt:      -2.430000e+22
Mpp:       5.300000e+22
Mrt:      -9.000000e+20
Mrp:       7.160000e+22
Mtp:      -1.460000e+23

PDEW 2011 11  7 11 59 31.40  36.5000   71.1000 212.1 5.7 5.7 AFGHANISTAN-TAJIKISTAN B
event name:     201111071159A
time shift:      0.9000
half duration:   1.7000
latitude:       36.5900
longitude:      71.0200
depth:         222.0000
Mrr:       4.010000e+24
Mtt:      -5.720000e+23
Mpp:      -3.440000e+24
Mrt:      -3.080000e+23
Mrp:       1.260000e+24
Mtp:       1.050000e+24

PDEW 2011 11  8 22  5 51.00  38.7200   43.1900  10.0 5.6 5.3 TURKEY                  
event name:     201111082205A
time shift:      1.8000
half duration:   1.2000
latitude:       38.6200
longitude:      43.0800
depth:          21.2000
Mrr:       1.200000e+24
Mtt:      -1.270000e+24
Mpp:       7.100000e+22
Mrt:       3.600000e+23
Mrp:      -1.190000e+23
Mtp:       3.120000e+23

PDEW 2011 11  9 19 23 33.20  38.4300   43.2300   5.0 5.6 5.7 TURKEY                  
event name:     201111091923A
time shift:      3.8000
half duration:   1.7000
latitude:       38.3000
longitude:      43.2800
depth:          13.5000
Mrr:      -1.010000e+24
Mtt:       7.530000e+23
Mpp:       2.610000e+23
Mrt:      -6.630000e+23
Mrp:       1.310000e+24
Mtp:      -4.050000e+24

PDEW 2011 11 14 22  8 15.40  38.6600   43.1700  10.0 5.3 5.2 TURKEY                  
event name:     201111142208A
time shift:      1.0000
half duration:   1.0000
latitude:       38.5700
longitude:      43.0500
depth:          17.3000
Mrr:       7.420000e+23
Mtt:      -7.420000e+23
Mpp:       0.000000e+00
Mrt:       1.820000e+23
Mrp:       6.200000e+22
Mtp:       2.510000e+23

PDEW 2011 11 18 17 39 43.10  38.8400   43.7300  19.1 5.0 0.0 TURKEY                  
event name:     201111181739A
time shift:     -0.1000
half duration:   0.7000
latitude:       38.7700
longitude:      43.7500
depth:          16.7000
Mrr:      -1.700000e+22
Mtt:      -2.700000e+23
Mpp:       2.870000e+23
Mrt:      -5.440000e+22
Mrp:       5.580000e+22
Mtp:      -1.550000e+23

PDEW 2011 11 21  1 56 41.80  32.2000   59.9200  14.2 4.7 4.9 NORTHERN AND CENTRAL IRA
event name:     201111210156A
time shift:     -0.4000
half duration:   0.7000
latitude:       32.0500
longitude:      59.9200
depth:          12.6000
Mrr:       2.290000e+23
Mtt:      -1.600000e+23
Mpp:      -6.890000e+22
Mrt:       1.100000e+21
Mrp:       1.700000e+23
Mtp:       2.170000e+23

PDEW 2011 11 30  0 47 21.80  38.4700   43.4500   4.3 4.9 5.0 TURKEY                  
event name:     201111300047A
time shift:      5.6000
half duration:   1.2000
latitude:       38.3400
longitude:      43.3200
depth:          28.4000
Mrr:       4.690000e+23
Mtt:      -1.030000e+24
Mpp:       5.630000e+23
Mrt:       5.600000e+22
Mrp:       7.900000e+22
Mtp:      -1.200000e+24

PDEW 2011  9  8 19 46 49.70  38.9800   70.7000  30.0 5.0 0.0 AFGHANISTAN-TAJIKISTAN B
event name:     201109081946A
time shift:      0.7000
half duration:   0.7000
latitude:       39.0000
longitude:      70.4500
depth:          41.0000
Mrr:       8.400000e+22
Mtt:       1.000000e+23
Mpp:      -1.840000e+23
Mrt:      -1.300000e+23
Mrp:       2.780000e+22
Mtp:      -1.530000e+23

PDEW 2011  9 22  3 22 36.10  39.7800   38.8400   5.0 5.6 5.6 TURKEY                  
event name:     201109220322A
time shift:      2.3000
half duration:   1.5000
latitude:       39.6800
longitude:      38.6000
depth:          16.1000
Mrr:      -9.700000e+22
Mtt:      -2.240000e+24
Mpp:       2.340000e+24
Mrt:       4.860000e+23
Mrp:      -4.160000e+23
Mtp:       1.300000e+24

MLI  1976  4  8  2 40 27.00  40.3100   63.7700  33.0 6.5 7.0 UZBEK SSR               
event name:     040876A
time shift:      6.4000
half duration:   5.1000
latitude:       40.4100
longitude:      63.6500
depth:          15.0000
Mrr:       1.160000e+26
Mtt:      -1.050000e+26
Mpp:      -1.100000e+25
Mrt:       6.000000e+24
Mrp:       3.000000e+25
Mtp:       1.200000e+25

MLI  1976  4  8  2 59  5.50  40.1700   63.8100  33.0 6.2 0.0 UZBEK SSR               
event name:     040876B
time shift:      2.8000
half duration:   2.8000
latitude:       41.4800
longitude:      63.5400
depth:          42.9000
Mrr:       1.390000e+25
Mtt:      -1.230000e+25